REMARK  3 active torsions:
REMARK  status: ('A' for Active; 'I' for Inactive)
REMARK    1  A    between atoms: Y_1  and  Y_1 
REMARK    2  A    between atoms: Y_2  and  Y_2 
REMARK    3  A    between atoms: Y_3  and  Y_3 
ROOT
HETATM    1  Y   YT3 X 200      10.364  26.668  50.415  1.00  0.00     3.000 Y  
HETATM    2  Y   YT3 X 201      20.440  39.317  25.189  1.00  0.00     3.000 Y  
HETATM    3  Y   YT3 X 202      10.904  44.946  28.454  1.00  0.00     3.000 Y  
ENDROOT
TORSDOF 3